Circuit: * Z:\home\sabo\github\esp32_wattimeter\ltspice_simulations\instrumentation.asc

.OP point found by inspection.

Date: Mon Oct 28 14:18:14 2024
Total elapsed time: 0.108 seconds.

tnom = 27
temp = 27
method = modified trap
totiter = 17421
traniter = 17421
tranpoints = 4321
accept = 3338
rejected = 983
matrix size = 9
fillins = 5
solver = Normal
Matrix Compiler1: 622 bytes object code size  0.2/0.2/[0.2]
Matrix Compiler2: 729 bytes object code size  0.2/0.2/[0.2]

