Circuit: * Z:\home\sabo\github\esp32_wattimeter\ltspice_simulations\instrumentation.asc

.OP point found by inspection.

Date: Mon Oct 28 13:57:41 2024
Total elapsed time: 0.109 seconds.

tnom = 27
temp = 27
method = modified trap
totiter = 17616
traniter = 17616
tranpoints = 4344
accept = 3358
rejected = 986
matrix size = 5
fillins = 1
solver = Normal
Matrix Compiler1: 262 bytes object code size  0.2/0.1/[0.1]
Matrix Compiler2: 369 bytes object code size  0.1/0.2/[0.2]

